<?xml version="1.0" encoding="UTF-8"?>

<!-- generated on 2022-09-24 16:00:14 by Eclipse SUMO netedit Version 1.14.1
-->

<routes xmlns:xsi="http://www.w3.org/2001/XMLSchema-instance" xsi:noNamespaceSchemaLocation="http://sumo.dlr.de/xsd/routes_file.xsd">
    <!-- Vehicles, persons and containers (sorted by depart) -->
    <flow id="f_0" begin="0.00" departLane="best" departSpeed="4.00" from="E0" to="E12" end="3600.00" vehsPerHour="600.00"/>
    <flow id="f_1" begin="0.00" departLane="best" departSpeed="4.00" from="E0" to="E12" end="3600.00" vehsPerHour="600.00"/>
    <flow id="f_2" begin="0.00" departLane="best" departSpeed="4.00" from="E0" to="E12" end="3600.00" vehsPerHour="600.00"/>

    <flow id="d_0" begin="0.00" departLane="best" departSpeed="4.00" from="+E13" to="-E1" end="3600.00" vehsPerHour="600.00"/>
    <flow id="d_1" begin="0.00" departLane="best" departSpeed="4.00" from="+E13" to="-E1" end="3600.00" vehsPerHour="900.00"/>
    <flow id="d_2" begin="0.00" departLane="best" departSpeed="4.00" from="+E13" to="E5" end="3600.00" vehsPerHour="300.00"/>
</routes>
