<?xml version="1.0" encoding="UTF-8"?>

<!-- generated on 05/23/22 23:38:01 by Eclipse SUMO sumo Version 1.8.0
-->

<configuration xmlns:xsi="http://www.w3.org/2001/XMLSchema-instance" xsi:noNamespaceSchemaLocation="http://sumo.dlr.de/xsd/sumoConfiguration.xsd">

    <input>
        <net-file value="cross.net.xml"/>
        <route-files value="demo.rou.xml"/>
    </input>

</configuration>
